REMARK  5 active torsions:
REMARK  status: ('A' for Active; 'I' for Inactive)
REMARK    1  A    between atoms: O_1  and  C_8 
REMARK    2  A    between atoms: O_2  and  C_9 
REMARK    3  A    between atoms: O_3  and  C_13 
REMARK    4  A    between atoms: C_5  and  C_11 
REMARK    5  A    between atoms: C_12  and  C_13 
ROOT
HETATM    1  C   UNK     0       0.072  -0.125  -0.107  0.00  0.00    -0.033 A 
HETATM    2  C   UNK     0       1.035  -1.127   0.018  0.00  0.00     0.050 A 
HETATM    3  C   UNK     0       0.463   1.212  -0.178  0.00  0.00     0.014 A 
HETATM    4  C   UNK     0       2.388  -0.792   0.071  0.00  0.00     0.099 A 
HETATM    5  C   UNK     0       2.778   0.545  -0.001  0.00  0.00     0.098 A 
HETATM    6  C   UNK     0       1.816   1.547  -0.125  0.00  0.00     0.040 A 
ENDROOT
BRANCH   1   7
HETATM    7  C   UNK     0      -1.338  -0.475  -0.163  0.00  0.00     0.018 C 
HETATM    8  C   UNK     0      -2.308   0.395   0.105  0.00  0.00     0.082 C 
BRANCH   8   9
HETATM    9  C   UNK     0      -3.710  -0.067   0.036  0.00  0.00     0.165 C 
HETATM   10  O   UNK     0      -4.090  -1.187  -0.260  0.00  0.00    -0.647 OA
BRANCH   9  11
HETATM   11  O   UNK     0      -4.523   0.966   0.359  0.00  0.00    -0.773 OA
HETATM   12  H   UNK     0      -5.470   0.711   0.329  0.00  0.00     0.167 HD
ENDBRANCH   9  11
ENDBRANCH   8   9
ENDBRANCH   1   7
BRANCH   4  13
HETATM   13  O   UNK     0       3.319  -1.778   0.194  0.00  0.00    -0.358 OA
HETATM   14  H   UNK     0       4.200  -1.367   0.215  0.00  0.00     0.217 HD
ENDBRANCH   4  13
BRANCH   5  15
HETATM   15  O   UNK     0       4.096   0.885   0.051  0.00  0.00    -0.358 OA
HETATM   16  H   UNK     0       4.177   1.852  -0.012  0.00  0.00     0.217 HD
ENDBRANCH   5  15
TORSDOF 5
