REMARK  2 active torsions:
REMARK  status: ('A' for Active; 'I' for Inactive)
REMARK    1  A    between atoms: O_1  and  C_3 
REMARK    2  A    between atoms: O_2  and  C_4 
ROOT
HETATM    1  C   UNK     0       0.613   0.697  -0.000  0.00  0.00     0.098 A 
HETATM    2  C   UNK     0       0.613  -0.697  -0.000  0.00  0.00     0.098 A 
HETATM    3  C   UNK     0      -0.595   1.395  -0.000  0.00  0.00     0.039 A 
HETATM    4  C   UNK     0      -0.595  -1.395   0.000  0.00  0.00     0.039 A 
HETATM    5  C   UNK     0      -1.803   0.697   0.000  0.00  0.00     0.003 A 
HETATM    6  C   UNK     0      -1.803  -0.697   0.000  0.00  0.00     0.003 A 
ENDROOT
BRANCH   1   7
HETATM    7  O   UNK     0       1.786   1.390   0.000  0.00  0.00    -0.358 OA
HETATM    8  H   UNK     0       2.519   0.750   0.001  0.00  0.00     0.217 HD
ENDBRANCH   1   7
BRANCH   2   9
HETATM    9  O   UNK     0       1.786  -1.390  -0.000  0.00  0.00    -0.358 OA
HETATM   10  H   UNK     0       1.591  -2.343   0.000  0.00  0.00     0.217 HD
ENDBRANCH   2   9
TORSDOF 2
