REMARK  11 active torsions:
REMARK  status: ('A' for Active; 'I' for Inactive)
REMARK    1  A    between atoms: O_1  and  C_11 
REMARK    2  A    between atoms: O_1  and  C_17 
REMARK    3  A    between atoms: O_2  and  C_10 
REMARK    4  A    between atoms: O_3  and  C_14 
REMARK    5  A    between atoms: O_4  and  C_15 
REMARK    6  A    between atoms: O_5  and  C_16 
REMARK    7  A    between atoms: O_8  and  C_23 
REMARK    8  A    between atoms: O_9  and  C_25 
REMARK    9  A    between atoms: C_10  and  C_16 
REMARK   10  A    between atoms: C_17  and  C_18 
REMARK   11  A    between atoms: C_19  and  C_20 
ROOT
HETATM    1  C   UNK     0      -3.807  -1.045  -0.004  0.00  0.00     0.147 C 
HETATM    2  C   UNK     0      -2.360   1.022   0.274  0.00  0.00     0.166 C 
HETATM    3  C   UNK     0      -2.387  -0.489   0.022  0.00  0.00     0.084 C 
HETATM    4  C   UNK     0      -4.710  -0.285  -0.979  0.00  0.00     0.083 C 
HETATM    5  C   UNK     0      -3.244   1.761  -0.735  0.00  0.00     0.176 C 
HETATM    6  C   UNK     0      -4.681   1.229  -0.735  0.00  0.00     0.152 C 
ENDROOT
BRANCH   2   7
HETATM    7  O   UNK     0      -1.008   1.457   0.139  0.00  0.00    -0.310 OA
BRANCH   7   8
HETATM    8  C   UNK     0      -0.111   0.873   0.984  0.00  0.00     0.283 C 
HETATM    9  O   UNK     0      -0.335   0.451   2.107  0.00  0.00    -0.260 OA
BRANCH   8  10
HETATM   10  C   UNK     0       1.202   0.838   0.300  0.00  0.00     0.083 C 
HETATM   11  C   UNK     0       2.257   0.295   0.923  0.00  0.00     0.017 C 
BRANCH  11  12
HETATM   12  C   UNK     0       3.608   0.192   0.344  0.00  0.00    -0.033 A 
HETATM   13  C   UNK     0       4.502  -0.728   0.868  0.00  0.00     0.050 A 
HETATM   14  C   UNK     0       5.781  -0.826   0.320  0.00  0.00     0.099 A 
HETATM   15  C   UNK     0       6.149  -0.002  -0.744  0.00  0.00     0.098 A 
HETATM   16  C   UNK     0       5.238   0.919  -1.260  0.00  0.00     0.040 A 
HETATM   17  C   UNK     0       3.958   1.017  -0.713  0.00  0.00     0.014 A 
BRANCH  14  18
HETATM   18  O   UNK     0       6.663  -1.729   0.833  0.00  0.00    -0.358 OA
HETATM   19  H   UNK     0       7.570  -1.459   0.618  0.00  0.00     0.217 HD
ENDBRANCH  14  18
BRANCH  15  20
HETATM   20  O   UNK     0       7.395  -0.088  -1.288  0.00  0.00    -0.358 OA
HETATM   21  H   UNK     0       7.779  -0.958  -1.092  0.00  0.00     0.217 HD
ENDBRANCH  15  20
ENDBRANCH  11  12
ENDBRANCH   8  10
ENDBRANCH   7   8
ENDBRANCH   2   7
BRANCH   5  22
HETATM   22  O   UNK     0      -3.279   3.154  -0.427  0.00  0.00    -0.390 OA
HETATM   23  H   UNK     0      -2.359   3.469  -0.405  0.00  0.00     0.210 HD
ENDBRANCH   5  22
BRANCH   1  24
HETATM   24  O   UNK     0      -4.376  -1.040   1.298  0.00  0.00    -0.379 OA
HETATM   25  H   UNK     0      -3.757  -1.485   1.901  0.00  0.00     0.211 HD
ENDBRANCH   1  24
BRANCH   1  26
HETATM   26  C   UNK     0      -3.766  -2.487  -0.481  0.00  0.00     0.176 C 
HETATM   27  O   UNK     0      -4.131  -3.453   0.173  0.00  0.00    -0.648 OA
BRANCH  26  28
HETATM   28  O   UNK     0      -3.266  -2.562  -1.738  0.00  0.00    -0.774 OA
HETATM   29  H   UNK     0      -3.230  -3.487  -2.064  0.00  0.00     0.167 HD
ENDBRANCH  26  28
ENDBRANCH   1  26
BRANCH   6  30
HETATM   30  O   UNK     0      -5.293   1.526   0.521  0.00  0.00    -0.393 OA
HETATM   31  H   UNK     0      -6.204   1.187   0.490  0.00  0.00     0.210 HD
ENDBRANCH   6  30
TORSDOF 11
