REMARK  5 active torsions:
REMARK  status: ('A' for Active; 'I' for Inactive)
REMARK    1  A    between atoms: O_1  and  C_7 
REMARK    2  A    between atoms: O_2  and  C_8 
REMARK    3  A    between atoms: O_3  and  C_9 
REMARK    4  A    between atoms: O_4  and  C_12 
REMARK    5  A    between atoms: C_6  and  C_12 
ROOT
HETATM    1  C   UNK     0      -1.037   0.042   0.001  0.00  0.00     0.043 A 
HETATM    2  C   UNK     0       1.753  -0.014   0.000  0.00  0.00     0.132 A 
HETATM    3  C   UNK     0       1.079   1.207   0.000  0.00  0.00     0.102 A 
HETATM    4  C   UNK     0       1.031  -1.208   0.001  0.00  0.00     0.102 A 
HETATM    5  C   UNK     0      -0.315   1.235   0.000  0.00  0.00     0.057 A 
HETATM    6  C   UNK     0      -0.363  -1.180   0.001  0.00  0.00     0.057 A 
ENDROOT
BRANCH   1   7
HETATM    7  C   UNK     0      -2.491   0.071   0.000  0.00  0.00     0.176 C 
HETATM    8  O   UNK     0      -3.186   1.092  -0.000  0.00  0.00    -0.646 OA
BRANCH   7   9
HETATM    9  O   UNK     0      -3.036  -1.176  -0.001  0.00  0.00    -0.773 OA
HETATM   10  H   UNK     0      -4.017  -1.146  -0.002  0.00  0.00     0.167 HD
ENDBRANCH   7   9
ENDBRANCH   1   7
BRANCH   3  11
HETATM   11  O   UNK     0       1.773   2.380  -0.000  0.00  0.00    -0.358 OA
HETATM   12  H   UNK     0       1.143   3.122  -0.001  0.00  0.00     0.217 HD
ENDBRANCH   3  11
BRANCH   4  13
HETATM   13  O   UNK     0       1.677  -2.408  -0.001  0.00  0.00    -0.358 OA
HETATM   14  H   UNK     0       2.635  -2.239  -0.001  0.00  0.00     0.217 HD
ENDBRANCH   4  13
BRANCH   2  15
HETATM   15  O   UNK     0       3.116  -0.041  -0.001  0.00  0.00    -0.356 OA
HETATM   16  H   UNK     0       3.441   0.876  -0.001  0.00  0.00     0.218 HD
ENDBRANCH   2  15
TORSDOF 5
