REMARK  5 active torsions:
REMARK  status: ('A' for Active; 'I' for Inactive)
REMARK    1  A    between atoms: C2_2  and  C4_4 
REMARK    2  A    between atoms: C4_4  and  C5_5 
REMARK    3  A    between atoms: C5_5  and  C6_6 
REMARK    4  A    between atoms: C5_5  and  C12_12 
REMARK    5  A    between atoms: C13_13  and  O14_14 
ROOT
HETATM    1  C12 SWF A 404     -10.345  26.985  56.078  1.00 41.68     0.060 C 
HETATM    2  C13 SWF A 404     -10.374  28.068  55.241  1.00 42.54     0.091 C 
HETATM    3  C15 SWF A 404     -11.360  28.176  54.264  1.00 41.70     0.032 A 
HETATM    4  C16 SWF A 404     -11.284  29.157  53.259  1.00 35.92     0.017 A 
HETATM    5  C17 SWF A 404     -12.284  29.246  52.299  1.00 34.94     0.001 A 
HETATM    6  C18 SWF A 404     -13.364  28.369  52.330  1.00 31.28     0.003 A 
HETATM    7  C19 SWF A 404     -13.442  27.400  53.320  1.00 34.05     0.038 A 
HETATM    8  C20 SWF A 404     -12.428  27.313  54.291  1.00 43.06     0.092 A 
HETATM    9  O21 SWF A 404     -12.490  26.355  55.286  1.00 40.58    -0.274 OA
HETATM   10  C22 SWF A 404     -11.337  26.010  55.926  1.00 38.25     0.298 C 
HETATM   11  O23 SWF A 404     -11.209  24.893  56.306  1.00 36.44    -0.259 OA
ENDROOT
BRANCH   1  12
HETATM   12  C5  SWF A 404      -9.157  26.842  57.036  1.00 41.97     0.067 C 
BRANCH  12  13
HETATM   13  C4  SWF A 404      -9.596  26.210  58.362  1.00 43.19     0.092 C 
BRANCH  13  14
HETATM   14  C2  SWF A 404      -8.856  26.806  59.555  1.00 51.47     0.124 C 
HETATM   15  C1  SWF A 404      -8.006  28.051  59.389  1.00 40.69     0.091 C 
HETATM   16  O3  SWF A 404      -8.936  26.291  60.620  1.00 64.79    -0.298 OA
ENDBRANCH  13  14
ENDBRANCH  12  13
BRANCH  12  17
HETATM   17  C6  SWF A 404      -8.054  26.034  56.338  1.00 37.51    -0.049 A 
HETATM   18  C7  SWF A 404      -8.189  24.667  56.139  1.00 41.19     0.008 A 
HETATM   19  C8  SWF A 404      -7.191  23.951  55.498  1.00 37.30     0.001 A 
HETATM   20  C9  SWF A 404      -6.051  24.599  55.049  1.00 41.80     0.000 A 
HETATM   21  C10 SWF A 404      -5.915  25.965  55.241  1.00 39.91     0.001 A 
HETATM   22  C11 SWF A 404      -6.914  26.681  55.882  1.00 29.18     0.008 A 
ENDBRANCH  12  17
ENDBRANCH   1  12
BRANCH   2  23
HETATM   23  O14 SWF A 404      -9.246  28.754  54.771  1.00 33.93    -0.359 OA
ATOM     24  H14 SWF A 404      -9.266  29.506  54.190  1.00  0.00     0.217 HD
ENDBRANCH   2  23
TORSDOF 5
