REMARK  12 active torsions:
REMARK  status: ('A' for Active; 'I' for Inactive)
REMARK    1  A    between atoms: O_1  and  C_10 
REMARK    2  A    between atoms: O_1  and  C_18 
REMARK    3  A    between atoms: O_2  and  C_14 
REMARK    4  A    between atoms: O_3  and  C_15 
REMARK    5  A    between atoms: O_4  and  C_17 
REMARK    6  A    between atoms: O_7  and  C_24 
REMARK    7  A    between atoms: O_8  and  C_26 
REMARK    8  A    between atoms: C_9  and  C_10 
REMARK    9  A    between atoms: C_9  and  C_11 
REMARK   10  A    between atoms: C_10  and  C_14 
REMARK   11  A    between atoms: C_18  and  C_20 
REMARK   12  A    between atoms: C_19  and  C_21 
ROOT
HETATM    1  C   UNK     0       2.198  -1.799  -0.055  0.00  0.00     0.233 C 
ENDROOT
BRANCH   1   2
HETATM    2  O   UNK     0       0.979  -1.103  -0.336  0.00  0.00    -0.301 OA
BRANCH   2   3
HETATM    3  C   UNK     0      -0.112  -1.532   0.354  0.00  0.00     0.283 C 
HETATM    4  O   UNK     0      -0.152  -2.436   1.173  0.00  0.00    -0.260 OA
BRANCH   3   5
HETATM    5  C   UNK     0      -1.263  -0.703  -0.068  0.00  0.00     0.083 C 
HETATM    6  C   UNK     0      -2.484  -0.909   0.474  0.00  0.00     0.017 C 
BRANCH   6   7
HETATM    7  C   UNK     0      -3.685  -0.155   0.150  0.00  0.00    -0.033 A 
HETATM    8  C   UNK     0      -4.766  -0.152   1.031  0.00  0.00     0.050 A 
HETATM    9  C   UNK     0      -5.917   0.572   0.721  0.00  0.00     0.099 A 
HETATM   10  C   UNK     0      -5.988   1.292  -0.472  0.00  0.00     0.098 A 
HETATM   11  C   UNK     0      -4.907   1.288  -1.354  0.00  0.00     0.040 A 
HETATM   12  C   UNK     0      -3.756   0.565  -1.043  0.00  0.00     0.014 A 
BRANCH   9  13
HETATM   13  O   UNK     0      -6.967   0.566   1.589  0.00  0.00    -0.358 OA
HETATM   14  H   UNK     0      -7.677   1.117   1.214  0.00  0.00     0.217 HD
ENDBRANCH   9  13
BRANCH  10  15
HETATM   15  O   UNK     0      -7.107   2.003  -0.786  0.00  0.00    -0.358 OA
HETATM   16  H   UNK     0      -6.975   2.437  -1.646  0.00  0.00     0.217 HD
ENDBRANCH  10  15
ENDBRANCH   6   7
ENDBRANCH   3   5
ENDBRANCH   2   3
ENDBRANCH   1   2
BRANCH   1  17
HETATM   17  C   UNK     0       3.302  -1.237  -0.953  0.00  0.00     0.082 C 
BRANCH  17  18
HETATM   18  C   UNK     0       3.855   0.064  -0.424  0.00  0.00    -0.052 A 
HETATM   19  C   UNK     0       3.276   1.259  -0.821  0.00  0.00     0.046 A 
HETATM   20  C   UNK     0       3.786   2.462  -0.331  0.00  0.00     0.099 A 
HETATM   21  C   UNK     0       4.869   2.453   0.549  0.00  0.00     0.098 A 
HETATM   22  C   UNK     0       5.440   1.242   0.939  0.00  0.00     0.040 A 
HETATM   23  C   UNK     0       4.930   0.040   0.450  0.00  0.00     0.010 A 
BRANCH  20  24
HETATM   24  O   UNK     0       3.219   3.638  -0.720  0.00  0.00    -0.358 OA
HETATM   25  H   UNK     0       2.485   3.450  -1.329  0.00  0.00     0.217 HD
ENDBRANCH  20  24
BRANCH  21  26
HETATM   26  O   UNK     0       5.376   3.620   1.034  0.00  0.00    -0.358 OA
HETATM   27  H   UNK     0       6.120   3.420   1.627  0.00  0.00     0.217 HD
ENDBRANCH  21  26
ENDBRANCH  17  18
ENDBRANCH   1  17
BRANCH   1  28
HETATM   28  C   UNK     0       1.963  -3.267  -0.347  0.00  0.00     0.171 C 
HETATM   29  O   UNK     0       1.227  -3.697  -1.226  0.00  0.00    -0.648 OA
BRANCH  28  30
HETATM   30  O   UNK     0       2.685  -4.074   0.472  0.00  0.00    -0.774 OA
HETATM   31  H   UNK     0       2.536  -5.023   0.274  0.00  0.00     0.167 HD
ENDBRANCH  28  30
ENDBRANCH   1  28
TORSDOF 12
